data_image0
_chemical_formula_structural       C70H4FeC6H10
_chemical_formula_sum              "C76 H14 Fe1"
_cell_length_a       9.85973
_cell_length_b       9.85973
_cell_length_c       18
_cell_angle_alpha    90
_cell_angle_beta     90
_cell_angle_gamma    120

_space_group_name_H-M_alt    "P 1"
_space_group_IT_number       1

loop_
  _space_group_symop_operation_xyz
  'x, y, z'

loop_
  _atom_site_type_symbol
  _atom_site_label
  _atom_site_symmetry_multiplicity
  _atom_site_fract_x
  _atom_site_fract_y
  _atom_site_fract_z
  _atom_site_occupancy
  C   C1        1.0  0.00000  0.00000  0.25469  1.0000
  C   C2        1.0  0.16667  0.08333  0.25352  1.0000
  C   C3        1.0  0.00000  0.25000  0.25402  1.0000
  C   C4        1.0  0.16667  0.33333  0.25127  1.0000
  C   C5        1.0  0.00000  0.50000  0.25507  1.0000
  C   C6        1.0  0.16667  0.58333  0.25346  1.0000
  C   C7        1.0  0.00000  0.75000  0.25570  1.0000
  C   C8        1.0  0.16667  0.83333  0.25589  1.0000
  C   C9        1.0  0.25000  0.00000  0.25474  1.0000
  C   C10       1.0  0.41667  0.08333  0.25399  1.0000
  C   C11       1.0  0.25000  0.25000  0.25052  1.0000
  C   C12       1.0  0.41667  0.33333  0.24988  1.0000
  C   C13       1.0  0.25000  0.50000  0.25039  1.0000
  C   C14       1.0  0.41667  0.58333  0.24979  1.0000
  C   C15       1.0  0.25000  0.75000  0.25466  1.0000
  C   C16       1.0  0.41667  0.83333  0.25394  1.0000
  C   C17       1.0  0.50000  0.00000  0.25475  1.0000
  C   C18       1.0  0.66667  0.08333  0.25472  1.0000
  C   C19       1.0  0.50000  0.25000  0.25218  1.0000
  C   C20       1.0  0.66667  0.33333  0.25399  1.0000
  C   C21       1.0  0.50000  0.50000  0.24987  1.0000
  C   C22       1.0  0.66667  0.58333  0.25330  1.0000
  C   C23       1.0  0.50000  0.75000  0.25194  1.0000
  C   C24       1.0  0.66667  0.83333  0.25374  1.0000
  C   C25       1.0  0.75000  0.00000  0.25492  1.0000
  C   C26       1.0  0.91667  0.08333  0.25478  1.0000
  C   C27       1.0  0.75000  0.25000  0.25502  1.0000
  C   C28       1.0  0.91667  0.33333  0.25492  1.0000
  C   C29       1.0  0.75000  0.50000  0.25462  1.0000
  C   C30       1.0  0.91667  0.58333  0.25560  1.0000
  C   C31       1.0  0.75000  0.75000  0.25414  1.0000
  C   C32       1.0  0.91667  0.83333  0.25495  1.0000
  C   C33       1.0  0.00000  0.00000  0.74388  1.0000
  C   C34       1.0  0.16667  0.08333  0.74446  1.0000
  C   C35       1.0  0.00000  0.25000  0.74503  1.0000
  C   C36       1.0  0.16667  0.33333  0.74800  1.0000
  C   C37       1.0  0.00000  0.50000  0.74416  1.0000
  C   C38       1.0  0.16667  0.58333  0.74448  1.0000
  C   C39       1.0  0.00000  0.75000  0.74365  1.0000
  C   C40       1.0  0.16667  0.83333  0.74181  1.0000
  C   C41       1.0  0.25000  0.00000  0.74294  1.0000
  C   C42       1.0  0.41667  0.08333  0.74413  1.0000
  C   C43       1.0  0.25000  0.25000  0.74812  1.0000
  C   C44       1.0  0.41667  0.33333  0.74997  1.0000
  C   C45       1.0  0.25000  0.50000  0.74798  1.0000
  C   C46       1.0  0.41667  0.58333  0.75002  1.0000
  C   C47       1.0  0.25000  0.75000  0.74294  1.0000
  C   C48       1.0  0.41667  0.83333  0.74389  1.0000
  C   C49       1.0  0.50000  0.00000  0.74343  1.0000
  C   C50       1.0  0.66667  0.08333  0.74371  1.0000
  C   C51       1.0  0.50000  0.25000  0.74763  1.0000
  C   C52       1.0  0.66667  0.33333  0.74689  1.0000
  C   C53       1.0  0.50000  0.50000  0.75208  1.0000
  C   C54       1.0  0.66667  0.58333  0.75074  1.0000
  C   C55       1.0  0.50000  0.75000  0.74724  1.0000
  C   C56       1.0  0.66667  0.83333  0.74665  1.0000
  C   C57       1.0  0.75000  0.00000  0.74398  1.0000
  C   C58       1.0  0.91667  0.08333  0.74415  1.0000
  C   C59       1.0  0.75000  0.25000  0.74422  1.0000
  C   C60       1.0  0.91667  0.33333  0.74438  1.0000
  C   C61       1.0  0.75000  0.50000  0.74847  1.0000
  C   C62       1.0  0.91667  0.58333  0.74499  1.0000
  C   C63       1.0  0.75000  0.75000  0.74826  1.0000
  C   C64       1.0  0.91667  0.83333  0.74470  1.0000
  C   C65       1.0  0.64766  0.58084  0.41192  1.0000
  C   C66       1.0  0.55752  0.41111  0.40802  1.0000
  C   C67       1.0  0.39234  0.36437  0.40272  1.0000
  C   C68       1.0  0.38086  0.50591  0.40308  1.0000
  C   C69       1.0  0.53901  0.63972  0.40859  1.0000
  C   C70       1.0  0.82548  0.68019  0.42181  1.0000
  H   H1        1.0  0.60992  0.32941  0.41075  1.0000
  H   H2        1.0  0.28886  0.23751  0.39945  1.0000
  H   H3        1.0  0.26659  0.51114  0.40059  1.0000
  H   H4        1.0  0.57360  0.77017  0.41162  1.0000
  Fe  Fe1       1.0  0.48825  0.49127  0.50087  1.0000
  C   C71       1.0  0.33253  0.39901  0.59169  1.0000
  C   C72       1.0  0.41789  0.56905  0.59444  1.0000
  C   C73       1.0  0.58443  0.62165  0.59764  1.0000
  C   C74       1.0  0.60200  0.48365  0.59746  1.0000
  C   C75       1.0  0.44618  0.34614  0.59383  1.0000
  C   C76       1.0  0.15437  0.29371  0.58495  1.0000
  H   H5        1.0  0.36153  0.64746  0.59348  1.0000
  H   H6        1.0  0.68510  0.74995  0.59854  1.0000
  H   H7        1.0  0.71952  0.48461  0.59761  1.0000
  H   H8        1.0  0.41567  0.21663  0.59209  1.0000
  H   H9        1.0  0.09252  0.35851  0.60892  1.0000
  H   H10       1.0  0.11325  0.17918  0.61903  1.0000
  H   H11       1.0  0.11477  0.25948  0.52315  1.0000
  H   H12       1.0  0.88490  0.61032  0.40129  1.0000
  H   H13       1.0  0.86048  0.71595  0.48391  1.0000
  H   H14       1.0  0.87333  0.79462  0.38695  1.0000
